Circuit: * D:\Dropbox\Projects\calcpsu\cptipb1a\sim\Draft1.asc

Instance "m:u1:6": Length shorter than recommended for a level 2 MOSFET.
Instance "m:u1:5": Length shorter than recommended for a level 2 MOSFET.
Instance "m:u1:4": Length shorter than recommended for a level 2 MOSFET.
Instance "m:u1:3": Length shorter than recommended for a level 2 MOSFET.
Instance "m:u1:2": Length shorter than recommended for a level 2 MOSFET.
Instance "m:u1:1": Length shorter than recommended for a level 2 MOSFET.
Direct Newton iteration failed to find .op point.  (Use ".option noopiter" to skip.)
Starting Gmin stepping
Gmin = 10
Gmin = 1.07374
Gmin = 0.115292
Gmin = 0.0123794
Gmin = 0.00132923
Gmin = 0.000142725
Gmin = 1.5325e-005
Gmin = 1.6455e-006
Gmin = 1.76685e-007
Gmin = 1.89714e-008
Gmin = 2.03704e-009
Gmin = 2.18725e-010
Gmin = 2.34854e-011
Gmin = 2.52173e-012
Gmin = 2.70769e-013
Gmin = 0
Gmin stepping succeeded in finding the operating point.

Heightened Def Con from 0.018 to 0.018
Heightened Def Con from 0.025801 to 0.025801
Heightened Def Con from 0.028401 to 0.028401
Heightened Def Con from 0.0458 to 0.0458
Heightened Def Con from 0.0458 to 0.0458
Heightened Def Con from 0.082 to 0.082
Heightened Def Con from 0.116 to 0.116
Heightened Def Con from 0.127401 to 0.127401
Heightened Def Con from 0.1364 to 0.1364
Heightened Def Con from 0.1364 to 0.1364
Heightened Def Con from 0.139 to 0.139
Heightened Def Con from 0.150201 to 0.150201
Heightened Def Con from 0.156201 to 0.156201
Heightened Def Con from 0.1568 to 0.1568
Heightened Def Con from 0.1594 to 0.1594
Heightened Def Con from 0.194 to 0.194
Heightened Def Con from 0.220782 to 0.220782
Heightened Def Con from 0.301601 to 0.301601
Heightened Def Con from 0.308582 to 0.308582
Heightened Def Con from 0.313401 to 0.313401
Heightened Def Con from 0.3298 to 0.3298
Heightened Def Con from 0.357801 to 0.357801
Heightened Def Con from 0.370801 to 0.370801
Heightened Def Con from 0.380001 to 0.380001
Heightened Def Con from 0.388801 to 0.388801
Heightened Def Con from 0.392401 to 0.392401
Heightened Def Con from 0.401601 to 0.401601
Heightened Def Con from 0.405801 to 0.405801
Heightened Def Con from 0.4074 to 0.4074
Heightened Def Con from 0.454401 to 0.454401
Heightened Def Con from 0.5376 to 0.5376
Heightened Def Con from 0.554182 to 0.554182
Heightened Def Con from 0.590401 to 0.590401
Heightened Def Con from 0.6186 to 0.6186
Heightened Def Con from 0.697001 to 0.697001
Heightened Def Con from 0.7128 to 0.7128
Heightened Def Con from 0.721001 to 0.721001
Heightened Def Con from 0.734801 to 0.734801
Heightened Def Con from 0.817001 to 0.817001
Heightened Def Con from 0.821201 to 0.821201
Heightened Def Con from 0.834401 to 0.834401

Date: Thu Apr 18 20:32:29 2024
Total elapsed time: 9.424 seconds.

tnom = 27
temp = 27
method = modified trap
totiter = 2132172
traniter = 2131706
tranpoints = 562019
accept = 415231
rejected = 146829
matrix size = 49
fillins = 45
solver = Normal
Matrix Compiler1: 4.86 KB object code size  0.8/0.3/[0.2]
Matrix Compiler2: 5.09 KB object code size  0.3/0.4/[0.3]

