Circuit: * D:\Dropbox\Projects\calcpsu\cptipb1a\sim\Draft1.asc

Direct Newton iteration for .op point succeeded.

Date: Wed Mar 20 10:20:54 2024
Total elapsed time: 0.046 seconds.

tnom = 27
temp = 27
method = modified trap
totiter = 2129
traniter = 2113
tranpoints = 1051
accept = 1051
rejected = 0
matrix size = 10
fillins = 0
solver = Normal
Matrix Compiler1: 346 bytes object code size  0.1/0.1/[0.1]
Matrix Compiler2: off  [0.0]/0.1/0.1

