Circuit: * D:\Dropbox\Projects\calcpsu\cptipb1a\sim\Draft1.asc

WARNING: Less than two connections to node N003.  This node is used by V1.
Direct Newton iteration for .op point succeeded.

Date: Sun Mar 24 20:31:27 2024
Total elapsed time: 0.047 seconds.

tnom = 27
temp = 27
method = modified trap
totiter = 2536
traniter = 2531
tranpoints = 1168
accept = 1135
rejected = 33
matrix size = 13
fillins = 0
solver = Normal
Matrix Compiler1: 504 bytes object code size  0.1/0.1/[0.1]
Matrix Compiler2: off  [0.0]/0.1/0.1

